units(length='cm', time='s', quantity='mol', act_energy='cal/mol')

ideal_gas(name='gas',
          elements="H I O C",
          species="""ch4     co      ch3oh   ch3ch3  h2o     ch2o    ch2ch2
                     ch3i    ch2i2   c3h8    hcooh""",
          initial_state=state(temperature=300.0, pressure=OneAtm))

#-------------------------------------------------------------------------------
# Species data
#-------------------------------------------------------------------------------

species(name='ch4',
        atoms='C:1 H:4',
        thermo=(NASA([200.00, 1000.00],
                     [ 5.16930178E+00, -1.36360634E-02,  4.81449152E-05,
                      -4.75803516E-08,  1.63777510E-11, -1.02398599E+04,
                      -4.76751985E+00]),
                NASA([1000.00, 3000.00],
                     [ 6.63532475E-02,  1.31728324E-02, -5.96711992E-06,
                       1.31907704E-09, -1.15589696E-13, -9.43020322E+03,
                       1.85530473E+01])))

species(name='co',
        atoms='C:1 O:1',
        thermo=(NASA([200.00, 1000.00],
                     [ 3.57584129E+00, -5.86413680E-04,  9.42650648E-07,
                       9.56403324E-10, -9.15361373E-13, -1.43420433E+04,
                       3.51611589E+00]),
                NASA([1000.00, 3000.00],
                     [ 2.63569075E+00,  2.24825361E-03, -1.17613323E-06,
                       2.93903819E-10, -2.85947346E-14, -1.41246935E+04,
                       8.23431191E+00])))

species(name='ch3oh',
        atoms='C:1 H:4 O:1',
        thermo=(NASA([200.00, 1000.00],
                     [ 6.30492674E+00, -1.91348400E-02,  7.32868022E-05,
                      -7.86347526E-08,  2.87811342E-11, -2.57020336E+04,
                      -3.99444099E+00]),
                NASA([1000.00, 3000.00],
                     [ 1.52682122E+00,  1.42896293E-02, -6.55675914E-06,
                       1.47552170E-09, -1.31942481E-13, -2.52665955E+04,
                       1.60336984E+01])))

species(name='ch3ch3',
        atoms='C:2 H:6',
        thermo=(NASA([200.00, 1000.00],
                     [ 4.63265216E+00, -7.06945216E-03,  6.00232512E-05,
                      -6.87595324E-08,  2.56215483E-11, -1.15715353E+04,
                       1.21663589E+00]),
                NASA([1000.00, 3000.00],
                     [ 3.31232673E-01,  2.25791469E-02, -1.07107260E-05,
                       2.47484960E-09, -2.26036098E-13, -1.11555016E+04,
                       1.93652807E+01])))

species(name='h2o',
        atoms='H:2 O:1',
        thermo=(NASA([200.00, 1000.00],
                     [ 4.20151885E+00, -2.06447554E-03,  6.28174259E-06,
                      -5.16089430E-09,  1.60745568E-12, -3.02878298E+04,
                      -8.76704283E-01]),
                NASA([1000.00, 3000.00],
                     [ 3.19558907E+00,  1.74893968E-03,  8.52961227E-08,
                      -1.95747428E-10,  3.12698319E-14, -3.00491750E+04,
                       4.09581798E+00])))

species(name='ch2o',
        atoms='C:1 H:2 O:1',
        thermo=(NASA([200.00, 1000.00],
                     [ 4.80404086E+00, -9.83347432E-03,  3.63665597E-05,
                      -3.66922639E-08,  1.27028992E-11, -1.43891187E+04,
                       5.27584469E-01]),
                NASA([1000.00, 3000.00],
                     [ 1.42448296E+00,  9.71518282E-03, -4.85136345E-06,
                       1.17023145E-09, -1.10772221E-13, -1.39474712E+04,
                       1.55156339E+01])))

species(name='ch2ch2',
        atoms='C:2 H:4',
        thermo=(NASA([200.00, 1000.00],
                     [ 4.03148216E+00, -8.05703567E-03,  5.75426478E-05,
                      -6.94706669E-08,  2.71094969E-11,  5.06688481E+03,
                       3.78176139E+00]),
                NASA([1000.00, 3000.00],
                     [ 1.81357557E+00,  1.48201278E-02, -6.90934895E-06,
                       1.57356065E-09, -1.41990796E-13,  5.01944924E+03,
                       1.15828150E+01])))

species(name='ch3i',
        atoms='C:1 H:3 I:1',
        thermo=(NASA([200.00, 1000.00],
                     [ 3.33254903E+00,  2.42910740E-03,  2.10706719E-05,
                      -2.92666346E-08,  1.19582445E-11,  5.46893270E+02,
                       1.00889910E+01]),
                NASA([1000.00, 3000.00],
                     [ 2.88774794E+00,  1.04989705E-02, -4.86628090E-06,
                       1.10255116E-09, -9.90503653E-14,  4.21576319E+02,
                       1.09514433E+01])))

species(name='ch2i2',
        atoms='C:1 H:2 I:2',
        thermo=(NASA([200.00, 1000.00],
                     [ 3.00863301E+00,  1.54789805E-02, -8.00737669E-06,
                      -3.26533266E-09,  3.38806587E-12,  1.16789718E+04,
                       1.58766134E+01]),
                NASA([1000.00, 3000.00],
                     [ 5.76701145E+00,  7.78078843E-03, -3.74170868E-06,
                       8.78428726E-10, -8.15499371E-14,  1.10057829E+04,
                       1.87391837E+00])))

species(name='c3h8',
        atoms='C:3 H:8',
        thermo=(NASA([200.00, 1000.00],
                     [ 4.87984532E+00, -2.44661956E-03,  7.56912626E-05,
                      -9.40428483E-08,  3.65051540E-11, -1.44554582E+04,
                       3.07990563E+00]),
                NASA([1000.00, 3000.00],
                     [ 1.31257279E+00,  3.10123172E-02, -1.48994996E-05,
                       3.48277530E-09, -3.21371590E-13, -1.44368340E+04,
                       1.62562859E+01])))

species(name='hcooh',
        atoms='C:1 H:2 O:2',
        thermo=(NASA([200.00, 1000.00],
                     [ 3.67373628E+00, -2.14081470E-03,  3.97712659E-05,
                      -4.99522677E-08,  1.92421881E-11, -4.67735599E+04,
                       8.21668562E+00]),
                NASA([1000.00, 3000.00],
                     [ 2.90584595E+00,  1.37807519E-02, -8.02282813E-06,
                       2.14975654E-09, -2.19418352E-13, -4.71682729E+04,
                       8.99462478E+00])))
